13

Al       2.02500000       2.02500000       4.05000000 
Al       2.02500000       4.05000000       2.02500000 
Al       2.02500000       4.05000000       6.07500000 
Al       2.02500000       6.07500000       4.05000000 
Al       4.05000000       2.02500000       2.02500000 
Al       4.05000000       2.02500000       6.07500000 
Al       6.07500000       2.02500000       4.05000000 
Al       4.05000000       6.07500000       2.02500000 
Al       6.07500000       4.05000000       2.02500000 
Al       4.05000000       4.05000000       4.05000000 
Al       4.05000000       6.07500000       6.07500000 
Al       6.07500000       4.05000000       6.07500000 
Al       6.07500000       6.07500000       4.05000000 
